 650

      N                    0.138912    3.608177   -9.101665
      C                   -1.028682    3.402858   -8.233785
      C                   -0.739105    3.808628   -6.794169
      O                   -1.506952    4.540658   -6.172623
      C                   -1.445280    1.928951   -8.214103
      S                   -2.524245    1.351441   -9.531948
      H                    0.479201    2.832686   -9.652341
      H                   -1.859241    4.000398   -8.611056
      H                   -1.958403    1.748436   -7.269377
      H                   -0.540251    1.321785   -8.229654
      H                   -2.863871    0.080046   -9.304444
      N                    0.369200    3.310348   -6.265575
      C                    0.754090    3.602827   -4.893073
      C                    1.111294    5.072764   -4.653022
      O                    0.808157    5.616566   -3.587644
      C                    1.903600    2.675698   -4.479799
      C                    1.471630    1.217176   -4.428361
      C                    2.631173    0.277192   -4.238441
      N                    2.172060   -1.100320   -4.123091
      C                    2.949447   -2.167003   -4.280340
      N                    4.237960   -2.022136   -4.564279
      N                    2.437793   -3.385035   -4.160798
      H                    0.959739    2.713420   -6.827993
      H                   -0.099803    3.368042   -4.257732
      H                    2.255882    2.972584   -3.491942
      H                    2.719317    2.780460   -5.194651
      H                    0.971395    0.968707   -5.364509
      H                    0.770191    1.084481   -3.605661
      H                    3.300768    0.359627   -5.093794
      H                    3.170198    0.552437   -3.331680
      H                    1.197397   -1.256143   -3.908764
      H                    1.457737   -3.501730   -3.946663
      H                    3.027868   -4.195467   -4.282574
      H                    4.633276   -1.098237   -4.659802
      H                    4.822601   -2.836439   -4.685639
      N                    1.746016    5.716409   -5.632450
      C                    2.091600    7.128340   -5.482226
      C                    0.825072    7.990231   -5.540619
      O                    0.674845    8.945632   -4.773327
      C                    3.073512    7.580733   -6.578437
      C                    4.502827    7.258872   -6.273148
      C                    5.251866    6.259844   -6.819781
      C                    5.345051    7.911299   -5.313202
      N                    6.508962    6.245387   -6.261151
      C                    6.592677    7.248706   -5.331687
      C                    5.165292    8.990621   -4.435249
      C                    7.659873    7.630116   -4.507594
      C                    6.228135    9.371354   -3.613660
      C                    7.459948    8.690435   -3.657048
      H                    1.988735    5.226741   -6.481519
      H                    2.565547    7.269934   -4.510820
      H                    2.982383    8.660512   -6.698460
      H                    2.797545    7.099881   -7.516723
      H                    4.222451    9.515391   -4.394646
      H                    6.103314   10.201596   -2.934397
      H                    8.262487    9.006975   -3.008210
      H                    8.605754    7.109565   -4.541149
      H                    4.906827    5.577000   -7.582745
      H                    7.249636    5.600689   -6.498018
      N                   -1.141625    7.814301   -2.179210
      C                   -0.542019    8.636518   -1.135284
      C                   -0.773488   10.084758   -1.561147
      O                   -1.084300   10.951315   -0.738257
      C                    0.961508    8.372360   -1.032105
      C                    1.432305    6.996436   -0.555686
      C                    2.941574    6.889881   -0.737840
      C                    1.046112    6.791946    0.903819
      H                   -0.553770    7.242021   -2.767307
      H                   -1.026355    8.443363   -0.178792
      H                    1.385076    8.530954   -2.023577
      H                    1.386775    9.121533   -0.363447
      H                    0.948618    6.228646   -1.158921
      H                    1.384788    5.810530    1.236231
      H                    1.515071    7.563696    1.515306
      H                   -0.037582    6.856516    1.005598
      H                    3.281509    5.911027   -0.399275
      H                    3.434022    7.666073   -0.152375
      H                    3.190456    7.015769   -1.791207
      N                    7.109596   -6.107030   -7.458138
      C                    6.030504   -5.275037   -6.945554
      C                    5.485815   -5.663225   -5.574806
      O                    4.963309   -4.813571   -4.850572
      C                    4.879954   -5.249178   -7.956697
      C                    5.169710   -4.622520   -9.324487
      C                    3.952713   -4.779197  -10.232124
      C                    5.522771   -3.150634   -9.155513
      H                    6.890232   -6.920828   -8.015269
      H                    6.414595   -4.259017   -6.865877
      H                    4.059669   -4.690378   -7.505617
      H                    4.544674   -6.274045   -8.115979
      H                    6.015461   -5.138476   -9.777415
      H                    5.727004   -2.711680  -10.131353
      H                    6.406945   -3.060165   -8.523492
      H                    4.687570   -2.627776   -8.689224
      H                    4.162508   -4.331733  -11.202834
      H                    3.095479   -4.278829   -9.779512
      H                    3.729210   -5.838556  -10.360208
      N                    6.731918   -8.030083    0.381659
      C                    6.253169   -8.725422    1.554568
      C                    7.335616   -8.610923    2.609942
      O                    8.084303   -7.629306    2.632613
      H                    6.361711   -7.118384    0.154127
      H                    6.070600   -9.773353    1.318362
      H                    5.335525   -8.259989    1.913121
      N                    5.028428   -6.384531    4.909221
      C                    3.734627   -7.003557    5.187741
      C                    3.770158   -7.466507    6.636672
      O                    3.517764   -8.631774    6.947439
      C                    3.449418   -8.181502    4.246304
      C                    2.001431   -8.677904    4.351288
      O                    1.131145   -7.888970    4.778427
      O                    1.725964   -9.849693    3.997425
      H                    5.852800   -6.748155    5.365009
      H                    2.949092   -6.255707    5.071442
      H                    3.637096   -7.863266    3.220724
      H                    4.124165   -9.002550    4.492060
      N                    4.091865   -6.539223    7.547785
      C                    4.177649   -6.797970    8.983737
      C                    2.998997   -7.590469    9.522893
      O                    3.192677   -8.584257   10.217441
      C                    4.245688   -5.396702    9.577374
      C                    4.973851   -4.649891    8.542476
      C                    4.308025   -5.109546    7.278494
      H                    4.955814   -4.962765    6.414177
      H                    3.356681   -4.596515    7.137445
      H                    6.033134   -4.907093    8.544614
      H                    4.839851   -3.576837    8.678005
      H                    3.248050   -4.985408    9.731577
      H                    4.807021   -5.403155   10.511858
      H                    5.103540   -7.329847    9.201874
      N                   -0.976185   -9.678048    6.130762
      C                   -2.276867   -9.691423    5.468147
      C                   -2.321164  -10.506416    4.171345
      O                   -3.388785  -10.951315    3.746173
      C                   -2.721090   -8.256102    5.177242
      C                   -2.848947   -7.335785    6.392091
      C                   -3.238459   -5.935238    5.956631
      C                   -3.887870   -7.898416    7.341534
      H                   -0.540451   -8.790107    6.332560
      H                   -2.997808  -10.128270    6.159547
      H                   -3.694576   -8.300581    4.688401
      H                   -2.008617   -7.811030    4.482778
      H                   -1.888548   -7.291297    6.904967
      H                   -3.982413   -7.243495    8.208134
      H                   -4.849256   -7.962786    6.829972
      H                   -3.582183   -8.891532    7.667813
      H                   -2.483852   -5.542497    5.275386
      H                   -4.203282   -5.967718    5.449817
      H                   -3.309213   -5.288963    6.831479
      N                   -6.698301   -9.096845   -2.558696
      C                   -6.195127   -7.812549   -2.089770
      C                   -5.468481   -7.082981   -3.219365
      O                   -5.513392   -5.854735   -3.303175
      C                   -5.262633   -8.014922   -0.890935
      C                   -5.962581   -8.328587    0.438233
      C                   -4.954414   -8.798848    1.471662
      C                   -6.698883   -7.083708    0.927187
      H                   -6.381547   -9.947286   -2.116024
      H                   -7.041056   -7.203883   -1.771507
      H                   -4.591591   -8.842224   -1.121450
      H                   -4.664830   -7.112376   -0.762166
      H                   -6.690381   -9.122561    0.272254
      H                   -7.197178   -7.303511    1.871368
      H                   -5.985732   -6.272898    1.072992
      H                   -7.440413   -6.786291    0.185737
      H                   -5.060000   -9.873435    1.618373
      H                   -5.134801   -8.283937    2.414695
      H                   -3.946210   -8.576379    1.121861
      N                   -7.884992   -5.234239   -5.134546
      C                   -8.346792   -4.085265   -4.367079
      C                   -7.301796   -2.976638   -4.422309
      O                   -7.639241   -1.793193   -4.494011
      C                   -8.606976   -4.477199   -2.909021
      C                   -9.741062   -5.459284   -2.741718
      C                  -10.115003   -5.636121   -1.286938
      C                  -11.316013   -6.557940   -1.158545
      N                  -11.853677   -6.621544    0.228615
      H                   -7.644705   -6.088114   -4.651815
      H                   -9.275129   -3.717535   -4.805252
      H                   -7.699687   -4.925782   -2.506034
      H                   -8.836258   -3.576008   -2.339377
      H                  -10.610583   -5.093621   -3.288035
      H                   -9.441822   -6.423742   -3.152403
      H                  -10.360966   -4.664514   -0.858241
      H                   -9.270382   -6.065451   -0.747202
      H                  -11.016876   -7.562011   -1.461015
      H                  -12.102500   -6.207552   -1.825704
      H                  -11.288806   -6.043006    0.834866
      H                  -11.828099   -7.576769    0.555755
      H                  -12.806165   -6.287389    0.236312
      N                   -6.031294   -3.369558   -4.397676
      C                   -4.942409   -2.408078   -4.451004
      C                   -4.968299   -1.634808   -5.768299
      O                   -4.874689   -0.411349   -5.774266
      C                   -3.593161   -3.119360   -4.304404
      C                   -2.430357   -2.168761   -4.062523
      C                   -1.096208   -2.879146   -3.935645
      O                   -0.282612   -2.477466   -3.068889
      O                   -0.860365   -3.828444   -4.708620
      H                   -5.818984   -4.354994   -4.339371
      H                   -5.057143   -1.701701   -3.629039
      H                   -3.655899   -3.808037   -3.462384
      H                   -3.396059   -3.690194   -5.212227
      H                   -2.373195   -1.471018   -4.898656
      H                   -2.619202   -1.606796   -3.148109
      N                   -5.103699   -2.352596   -6.879875
      C                   -5.117807   -1.717022   -8.189939
      C                   -6.373276   -0.906754   -8.482091
      O                   -6.302842    0.140951   -9.121650
      C                   -4.923056   -2.752782   -9.327643
      C                   -3.505707   -3.320278   -9.275566
      C                   -5.125906   -2.095534  -10.684031
      C                   -3.137975   -4.157605  -10.484299
      H                   -5.198919   -3.355345   -6.813907
      H                   -4.272042   -1.031095   -8.226824
      H                   -5.641595   -3.563194   -9.207460
      H                   -3.418693   -3.943480   -8.385169
      H                   -2.800441   -2.493340   -9.194125
      H                   -2.370318   -4.880177  -10.205943
      H                   -4.021476   -4.686136  -10.842710
      H                   -2.757521   -3.508771  -11.273423
      H                   -5.906068   -1.338647  -10.608309
      H                   -4.194812   -1.627309  -11.004016
      H                   -5.421568   -2.850198  -11.412687
      Mg                  11.016498    0.611045   -0.156187
      C                    7.866631    1.530070   -1.366980
      C                   10.905050    3.272659    2.048131
      C                   13.872742   -0.552675    1.348759
      C                   10.877203   -2.223470   -2.131518
      N                    9.617112    2.227570    0.231266
      C                    8.363487    2.387894   -0.350825
      C                    7.653567    3.570290    0.291553
      C                    8.753269    4.278651    1.038952
      C                    9.845823    3.231255    1.149570
      C                    9.233636    5.522183    0.285654
      C                    6.516659    3.284312    1.299961
      C                    6.580851    2.282014    2.470455
      C                    5.500105    1.224948    2.392369
      O                    5.394583    0.509396    1.391183
      O                    4.552807    1.061624    3.466478
      N                   12.171909    1.234566    1.425048
      C                   11.956610    2.359721    2.190618
      C                   12.963256    2.407366    3.230646
      C                   13.882846    1.441161    2.953548
      C                   13.332479    0.632413    1.865586
      C                   12.910572    3.396443    4.421875
      C                   15.106168    1.502314    3.746212
      C                   16.056871    0.537912    3.772975
      N                   12.213195   -1.066174   -0.416431
      C                   13.361283   -1.351760    0.300982
      C                   13.861525   -2.658475   -0.119587
      C                   13.009801   -3.126270   -1.076203
      C                   11.988145   -2.122703   -1.274447
      C                   15.043819   -3.229837    0.506853
      O                   15.799825   -2.886094    1.419097
      C                   13.070386   -4.510117   -1.789533
      C                   12.447400   -5.673093   -0.992182
      N                    9.767442   -0.135835   -1.532431
      C                    9.827775   -1.302490   -2.263024
      C                    8.674666   -1.416474   -3.147813
      C                    7.907727   -0.313648   -2.879993
      C                    8.562262    0.424877   -1.843655
      C                    8.399006   -2.534614   -4.152102
      C                    6.677281    0.382694   -3.170365
      O                    5.775555    0.136266   -3.966685
      C                    6.599548    1.631293   -2.229686
      C                    6.577676    2.926262   -3.092979
      O                    7.583852    3.279837   -3.711578
      O                    5.295129    3.546449   -3.229295
      C                    5.010954    4.868135   -3.496986
      C                    3.980952   -0.266935    3.646074
      C                    4.518390   -0.832025    4.866608
      C                    4.350401   -0.499357    6.209418
      C                    3.469773    0.619970    6.811569
      C                    5.217503   -1.221253    7.242944
      C                    6.502913   -0.468709    7.629395
      C                    7.729053   -0.690045    6.734046
      C                    8.758804    0.406097    6.937463
      C                   10.100781   -0.218919    7.257630
      C                    8.794810    1.444938    5.823158
      C                    9.195920    2.865552    6.215010
      C                    7.954733    3.738226    6.110279
      C                    8.114449    5.222568    5.800880
      C                    8.050951    6.153929    7.022947
      C                    7.446374    5.598332    4.460899
      C                    6.376244    6.679241    4.214153
      C                    5.100068    6.334404    3.432128
      C                    3.846612    5.760323    4.116297
      C                    3.873744    4.275010    4.413983
      C                    3.283442    6.451722    5.352155
      H                    5.708085    1.578773   -1.602532
      H                    7.276657    4.226430   -0.492275
      H                    5.669878    2.962235    0.693241
      H                    6.238482    4.245238    1.731285
      H                    7.553847    1.790064    2.454891
      H                    6.475731    2.827556    3.408787
      H                    2.895667   -0.194169    3.720506
      H                    4.248562   -0.899392    2.799775
      H                    5.175943   -1.672558    4.704512
      H                    5.500390   -2.190589    6.832091
      H                    4.624761   -1.383411    8.142684
      H                    6.276338    0.597293    7.622321
      H                    6.770042   -0.753154    8.647767
      H                    8.179926   -1.651168    6.979468
      H                    7.413837   -0.697351    5.690950
      H                    8.454656    0.941749    7.836891
      H                    7.797893    1.493136    5.386469
      H                    9.485567    1.095815    5.056125
      H                    9.573956    2.876743    7.237645
      H                    9.964269    3.233220    5.534807
      H                    7.332643    3.313026    5.323256
      H                    7.407586    3.650947    7.048790
      H                    6.057274    7.035073    5.193499
      H                    6.860116    7.511876    3.703300
      H                    5.394275    5.606050    2.677307
      H                    4.792901    7.237766    2.904968
      H                    3.060760    5.868567    3.368384
      H                    8.404781    4.559195    2.032830
      H                   10.918550    4.116424    2.723034
      H                   15.265434    2.379753    4.355373
      H                   14.788160   -0.897906    1.805435
      H                   15.325133   -4.177310    0.072234
      H                   12.540062   -4.425899   -2.737074
      H                   14.113840   -4.749256   -1.994312
      H                   10.826399   -3.104673   -2.754431
      H                   15.936370   -0.355801    3.177729
      H                   16.935292    0.661805    4.388570
      H                   10.842645    0.565145    7.404286
      H                   10.408312   -0.860693    6.431428
      H                   10.016292   -0.814169    8.167250
      H                    2.882785    1.086490    6.019662
      H                    4.106412    1.370048    7.281346
      H                    2.799392    0.193837    7.557289
      H                    8.292229   -2.109479   -5.149684
      H                    7.479928   -3.051603   -3.877497
      H                    9.230233   -3.240748   -4.146126
      H                   10.025875    6.008778    0.854400
      H                    9.615605    5.229211   -0.692655
      H                    8.400920    6.214103    0.157631
      H                    8.175009    7.187188    6.700577
      H                    8.848686    5.893395    7.719161
      H                    7.086413    6.040542    7.517113
      H                    4.325876    5.253318   -2.741705
      H                    4.548204    4.946468   -4.480972
      H                    5.932775    5.447891   -3.481364
      H                   13.218265   -6.155854   -0.390697
      H                   11.664996   -5.288084   -0.339346
      H                   12.019476   -6.398995   -1.683270
      H                    4.271954    3.738748    3.552927
      H                    2.862120    3.926971    4.622260
      H                    4.507612    4.089364    5.281782
      H                   11.972744    3.951032    4.393455
      H                   12.976437    2.841725    5.357517
      H                   13.746828    4.092614    4.352947
      H                    3.245630    7.527164    5.181436
      H                    3.923357    6.241979    6.208599
      H                    2.278109    6.079140    5.550354
      Mg                  -0.270207   -2.269498   -0.918027
      C                    1.643482   -5.077480   -0.072311
      C                   -3.085470   -4.249188   -0.903210
      C                   -2.168945    0.564970   -0.875870
      C                    2.621087   -0.390409   -0.727380
      N                   -0.656822   -4.368973   -0.610479
      C                    0.248537   -5.318730   -0.152901
      C                   -0.498984   -6.614374    0.127914
      C                   -1.764330   -6.454146   -0.664571
      C                   -1.895294   -4.948813   -0.794156
      C                   -1.671323   -7.075662   -2.072264
      C                   -0.737998   -6.866358    1.642545
      C                   -1.232985   -5.836118    2.679697
      C                   -2.702632   -5.381476    2.590822
      O                   -3.527564   -6.214444    2.198842
      O                   -3.166646   -4.018964    2.902195
      N                   -2.267512   -1.910049   -0.783091
      C                   -3.259077   -2.862391   -0.879855
      C                   -4.540974   -2.201146   -0.928646
      C                   -4.318099   -0.858554   -0.839000
      C                   -2.864082   -0.666396   -0.827754
      C                   -5.867614   -3.009382   -1.054018
      C                   -5.537059   -0.053727   -0.766906
      C                   -5.591155    1.290720   -0.721590
      N                    0.167198   -0.259602   -0.880897
      C                   -0.766058    0.758286   -0.890878
      C                   -0.071563    2.033037   -0.925966
      C                    1.259701    1.770105   -0.797195
      C                    1.412894    0.327480   -0.803045
      C                   -0.648870    3.454917   -1.008397
      C                    2.425499    2.803978   -0.681743
      C                    2.693577    3.389207    0.706409
      N                    1.710888   -2.659359   -0.810415
      C                    2.775994   -1.790863   -0.728221
      C                    4.025272   -2.534400   -0.592441
      C                    3.643798   -3.826618   -0.367443
      C                    2.217579   -3.871396   -0.436923
      C                    5.438309   -1.994107   -0.658516
      C                    4.089383   -5.160434   -0.042943
      O                    5.222755   -5.649023   -0.027209
      C                    2.811695   -6.005465    0.308670
      C                    2.811860   -7.347765   -0.508320
      O                    2.483517   -7.360893   -1.697852
      O                    3.123361   -8.536835    0.249207
      C                    3.468829   -9.779446   -0.320083
      C                   -4.574765   -3.732609    2.659429
      C                   -4.803269   -2.311694    2.854635
      C                   -5.513037   -1.666880    3.859408
      C                   -6.234243   -2.370606    5.038755
      C                   -5.671184   -0.144190    3.853370
      C                   -4.780129    0.578341    4.834172
      C                   -5.213344    2.015244    5.079235
      C                   -4.190807    2.825849    5.870730
      C                   -4.003464    2.392428    7.329383
      C                   -4.204790    4.343266    5.658704
      C                   -2.818445    4.969684    5.831406
      C                   -2.798059    6.495003    5.802953
      C                   -1.457615    7.209174    5.967027
      C                   -0.409028    6.902100    4.891260
      C                   -1.076411    7.527768    7.419415
      C                    0.383179    7.731723    7.854803
      C                    0.721891    8.309885    9.233326
      C                    1.963275    9.217243    9.302201
      C                    2.016885   10.148400   10.510855
      C                    3.296459    8.482172    9.182100
      H                    2.786570   -6.218229    1.377654
      H                    0.072712   -7.446773   -0.282857
      H                    0.221089   -7.215336    2.027109
      H                   -1.419226   -7.714735    1.707725
      H                   -1.086532   -6.272399    3.667626
      H                   -0.601245   -4.951534    2.603903
      H                   -4.834287   -4.008457    1.637064
      H                   -5.188757   -4.300631    3.358376
      H                   -4.357846   -1.665129    2.113133
      H                   -6.707313    0.092115    4.095389
      H                   -5.455226    0.224682    2.850449
      H                   -4.800201    0.042436    5.783104
      H                   -3.759166    0.578054    4.450721
      H                   -5.367799    2.499687    4.115710
      H                   -6.156180    2.009567    5.625754
      H                   -3.246334    2.531059    5.412060
      H                   -4.559933    4.551984    4.648705
      H                   -4.890156    4.794410    6.375238
      H                   -2.417431    4.643175    6.791032
      H                   -2.169063    4.598350    5.039300
      H                   -3.211653    6.804299    4.842793
      H                   -3.466265    6.853940    6.585802
      H                    0.860645    6.753441    7.803205
      H                    0.859916    8.366965    7.108949
      H                   -0.135548    8.893628    9.569345
      H                    0.864457    7.480933    9.926735
      H                    1.904061    9.867261    8.428968
      H                   -2.612261   -6.866962   -0.119065
      H                   -3.981097   -4.842434   -1.017787
      H                   -6.477921   -0.584194   -0.747858
      H                   -2.776531    1.457603   -0.906030
      H                    2.197764    3.633815   -1.350286
      H                    3.340457    2.326296   -1.031192
      H                    3.527181    0.194998   -0.661301
      H                   -4.677894    1.868238   -0.738027
      H                   -6.546785    1.791485   -0.669572
      H                    1.069077   10.677661   10.604545
      H                    2.196508    9.563370   11.412687
      H                    2.824376   10.868846   10.378428
      H                   -1.731697    3.401598   -1.118853
      H                   -0.402815    3.999286   -0.096162
      H                   -0.220330    3.971651   -1.866602
      H                   -2.614643   -6.928230   -2.597631
      H                   -0.866809   -6.594026   -2.629364
      H                   -1.465478   -8.141635   -1.986090
      H                    0.503241    7.458997    5.102631
      H                   -0.795518    7.195187    3.915178
      H                   -0.191441    5.834614    4.890374
      H                   -6.075263   -3.447468    4.972522
      H                   -5.832898   -2.002272    5.982248
      H                   -7.302383   -2.156988    4.990968
      H                   -4.004980    1.304816    7.389362
      H                   -3.053792    2.775193    7.703293
      H                   -4.818500    2.790721    7.933965
      H                   -6.283390   -3.182778   -0.061115
      H                   -6.581543   -2.444693   -1.653067
      H                   -5.665800   -3.966555   -1.534397
      H                    3.287746    2.685594    1.288968
      H                    3.237532    4.328097    0.605133
      H                    1.745558    3.570874    1.212843
      H                    6.024865   -2.593697   -1.355095
      H                    5.891228   -2.041685    0.331635
      H                    5.415990   -0.960170   -0.999850
      H                    3.267897    7.812659    8.321807
      H                    3.473262    7.900215   10.087382
      H                    4.100695    9.206556    9.053462
      H                    4.360816  -10.169469    0.170851
      H                    2.645086  -10.481441   -0.186964
      H                    3.666369   -9.649108   -1.383898
      Mg                 -10.973405    2.625432   -0.819940
      C                  -11.862673   -0.758497   -0.383519
      C                   -8.704275    2.268951    1.788043
      C                  -10.691112    6.033697   -0.583654
      C                  -13.864868    3.038212   -2.707534
      N                  -10.262689    0.934930    0.424398
      C                  -10.733380   -0.371653    0.392529
      C                   -9.950323   -1.239007    1.367652
      C                   -9.125124   -0.256892    2.154622
      C                   -9.327592    1.072387    1.431645
      C                   -9.598754   -0.235411    3.620297
      C                   -9.104393   -2.367150    0.793012
      C                   -8.497080   -3.426141    1.708926
      C                   -9.426104   -4.357849    2.464684
      O                  -10.130918   -5.170628    1.865388
      O                   -9.478011   -4.340067    3.884796
      N                   -9.709441    3.900420    0.203540
      C                   -8.872058    3.547381    1.245475
      C                   -8.251664    4.744687    1.775054
      C                   -8.824408    5.816959    1.146339
      C                   -9.774534    5.280263    0.167469
      C                   -7.152303    4.692284    2.873327
      C                   -8.381782    7.137522    1.603762
      C                   -8.740652    8.339877    1.029627
      N                  -12.022389    4.235396   -1.627166
      C                  -11.722597    5.565286   -1.413559
      C                  -12.662575    6.391855   -2.145524
      C                  -13.581456    5.558769   -2.699527
      C                  -13.173564    4.204640   -2.385575
      C                  -12.711916    7.934534   -2.183617
      C                  -14.851505    5.955420   -3.475495
      C                  -16.055652    6.114891   -2.536586
      N                  -12.425392    1.433754   -1.561980
      C                  -13.539556    1.737681   -2.317753
      C                  -14.396030    0.575607   -2.444326
      C                  -13.769724   -0.420718   -1.761217
      C                  -12.588746    0.127721   -1.184711
      C                  -15.730703    0.526995   -3.169707
      C                  -13.803667   -1.815628   -1.398635
      O                  -14.601727   -2.700334   -1.673210
      C                  -12.562084   -2.120876   -0.530922
      C                  -13.015406   -2.726530    0.837265
      O                  -12.681442   -3.885725    1.090059
      O                  -13.861551   -1.935230    1.670008
      C                  -13.710580   -1.889215    3.029377
      C                  -10.740842   -3.934072    4.482673
      C                  -10.475058   -3.466169    5.824095
      C                  -11.228425   -2.827763    6.808460
      C                  -12.718956   -2.405046    6.730533
      C                  -10.597830   -2.438212    8.156469
      C                   -9.368176   -1.535259    8.092974
      C                   -9.712700   -0.093717    8.453496
      C                   -8.738322    0.968058    7.945924
      C                   -7.383061    0.964209    8.655717
      C                   -9.279742    2.398949    7.967538
      C                  -10.385294    2.840961    7.003774
      C                   -9.778523    3.969357    6.183310
      C                  -10.130687    5.416249    6.503727
      C                  -11.057047    5.996068    5.433369
      C                   -8.904224    6.189741    7.019030
      C                   -8.258904    7.418324    6.370708
      C                   -6.862015    7.696701    6.920642
      C                   -6.409814    9.122232    7.236704
      C                   -7.200952    9.855342    8.317399
      C                   -4.955425    9.103591    7.688580
      H                  -11.907303   -2.821386   -1.050350
      H                  -10.668464   -1.687139    2.055201
      H                   -8.273154   -1.896058    0.267320
      H                   -9.710843   -2.884727    0.050333
      H                   -7.849710   -4.049096    1.091962
      H                   -7.870032   -2.915292    2.439614
      H                  -11.186894   -3.132784    3.893911
      H                  -11.420289   -4.785206    4.518963
      H                   -9.458451   -3.653422    6.134990
      H                  -10.307963   -3.357602    8.665243
      H                  -11.357788   -1.939495    8.757534
      H                   -8.619796   -1.905561    8.792707
      H                   -8.958097   -1.561659    7.083517
      H                   -9.750142   -0.020933    9.540898
      H                  -10.703735    0.132022    8.058736
      H                   -8.539888    0.729705    6.900879
      H                   -8.428865    3.054498    7.782957
      H                   -9.630765    2.599246    8.979327
      H                  -10.680747    2.014969    6.357065
      H                  -11.246607    3.206005    7.563303
      H                   -8.695816    3.880685    6.278046
      H                  -10.033775    3.791577    5.139045
      H                  -10.771690    5.335785    7.382433
      H                   -9.175307    6.510831    8.025223
      H                   -8.108943    5.454545    7.138005
      H                   -8.889683    8.287170    6.559241
      H                   -8.191084    7.257907    5.295024
      H                   -6.776281    7.131789    7.848625
      H                   -6.144427    7.276016    6.215567
      H                   -6.471466    9.706420    6.318556
      H                   -8.073947   -0.542305    2.112047
      H                   -7.992423    2.197826    2.596267
      H                   -7.721408    7.172095    2.457603
      H                  -10.589964    7.106395   -0.515874
      H                  -14.672992    6.901798   -3.986733
      H                  -15.073760    5.186067   -4.214934
      H                  -14.745376    3.152136   -3.322601
      H                   -9.398453    8.353841    0.172895
      H                   -8.363441    9.266978    1.435715
      H                  -11.846377    8.338940   -1.659478
      H                  -12.699249    8.272554   -3.219908
      H                  -13.625000    8.281580   -1.699944
      H                  -14.573695   -1.395450    3.475308
      H                  -12.806562   -1.332279    3.274580
      H                  -13.629656   -2.903205    3.420493
      H                   -6.887791    3.654376    3.075219
      H                   -7.529380    5.153957    3.786436
      H                   -6.269969    5.231913    2.530894
      H                  -11.296742    7.029643    5.681338
      H                  -11.975442    5.410590    5.391922
      H                  -10.558987    5.960780    4.464547
      H                   -8.998504    0.477237    4.187238
      H                  -10.646729    0.061419    3.659416
      H                   -9.485923   -1.229270    4.053080
      H                   -8.253378    9.893113    8.034974
      H                   -7.098092    9.326107    9.264122
      H                   -6.816803   10.869880    8.423988
      H                   -6.975366   -0.046441    8.654407
      H                   -6.698089    1.633339    8.134835
      H                   -7.510598    1.303089    9.684051
      H                  -13.130501   -2.696434    5.764118
      H                  -12.795885   -1.323688    6.846136
      H                  -13.278558   -2.896227    7.527000
      H                  -16.116352   -0.492219   -3.152040
      H                  -16.438368    1.191231   -2.674284
      H                  -15.594294    0.845852   -4.202461
      H                  -16.935292    6.394542   -3.116798
      H                  -15.842697    6.890726   -1.802117
      H                  -16.243926    5.171085   -2.024807
      H                   -4.349903    8.587056    6.944266
      H                   -4.596595   10.126401    7.801768
      H                   -4.878073    8.583045    8.643517
      H                    5.549260   -6.562608   -5.278286
      H                    6.569569   -8.546631   -0.302315
      H                    5.162507   -6.448099    4.049619
      H                    7.438364   -9.297714    3.256773
      H                    2.112333   -7.317235    9.322735
      H                   -1.072179  -10.094621    6.891079
      H                   -6.489389   -9.157799   -3.403329
      H                   -1.518953  -10.670133    3.691143
      H                   -0.676643   10.322987   -2.474664
      H                    7.563180   -6.387336   -6.767717
      H                   -8.517853   -5.432331   -5.701399
      H                   -4.978353   -7.580591   -3.861950
      H                   -7.215393   -1.212209   -8.168772
      H                   -1.704192    7.276708   -1.785079
      H                    0.148426    7.786820   -6.174383
      H                    8.166322    5.836162    3.890091
      H                    7.089675    4.791606    4.110626
      H                    9.034748    5.270658    5.573725
      H                   -1.534429    8.328006    7.644248
      H                   -1.436604    6.837012    7.961585
      H                   -1.713966    8.078160    5.684175
      H                   -0.065275    4.247643   -9.658673
